ieee_96_marie/raw_data/h20200101_0000-m/h20200101_0000.m
%% MATPOWER Case Format : Version 2
function mpc = RTS_GMLC
mpc.version = '2';

%%-----  Power Flow Data  -----%%
%% system MVA base
mpc.baseMVA = 100.0;
%% bus data
%    bus_i    type    Pd    Qd    Gs    Bs    area    Vm    Va    baseKV    zone    Vmax    Vmin
mpc.bus = [
	101	2	31.532544528850874	22.0	0.0	0.0	1	1.04777	-7.74152	138.0	11	1.05	0.95				
	102	2	28.320896474986434	20.0	0.0	0.0	1	1.04783	-7.817840000000001	138.0	12	1.05	0.95				
	103	2	52.55424088141814	37.0	0.0	0.0	1	1.01085	-7.2109	138.0	11	1.05	0.95				
	104	2	21.605632362360783	15.0	0.0	0.0	1	1.01765	-10.56614	138.0	11	1.05	0.95				
	105	1	20.729728347670484	14.000000000000002	0.0	0.0	1	1.03568	-10.70887	138.0	11	1.05	0.95				
	106	1	39.70764866596036	28.000000000000004	0.0	-100.0	1	1.03242	-13.27944	138.0	12	1.05	0.95				
	107	2	18.24800030604796	25.0	0.0	0.0	1	1.03745	-11.27673	138.0	12	1.05	0.95				
	108	1	49.92652883734722	35.0	0.0	0.0	1	1.01024	-13.749670000000002	138.0	12	1.05	0.95				
	109	1	51.094400856934286	36.0	0.0	0.0	1	1.0261	-8.81524	138.0	13	1.05	0.95				
	110	1	56.93376095486964	40.0	0.0	0.0	1	1.05	-10.62063	138.0	13	1.05	0.95				
	111	1	0.0	0.0	0.0	0.0	1	1.02764	-3.9167400000000003	230.0	13	1.05	0.95				
	112	1	0.0	0.0	0.0	0.0	1	1.02024	-2.42424	230.0	13	1.05	0.95				
	113	3	77.37152129764335	54.0	0.0	0.0	1	1.03943	0.0	230.0	14	1.05	0.95				
	114	1	56.64179294997287	39.0	0.0	0.0	1	1.04401	-1.73056	230.0	16	1.05	0.95				
	115	2	92.55385755227526	64.0	0.0	0.0	1	1.04335	7.9597	230.0	16	1.05	0.95				
	116	2	29.19680048967674	20.0	0.0	0.0	1	1.04565	7.56929	230.0	16	1.05	0.95				
	117	1	0.0	0.0	0.0	0.0	1	1.04783	11.43417	230.0	17	1.05	0.95				
	118	2	48.61267281531177	68.0	0.0	0.0	1	1.05	12.52457	230.0	17	1.05	0.95				
	119	2	52.84620888631489	37.0	0.0	0.0	1	1.03962	6.657770000000001	230.0	15	1.05	0.95				
	120	1	37.37190462678622	26.0	0.0	0.0	1	1.04399	7.7406	230.0	15	1.05	0.95				
	121	2	0.0	0.0	0.0	0.0	1	1.05	13.08653	230.0	17	1.05	0.95				
	122	2	0.0	0.0	0.0	0.0	1	1.05	18.94978	230.0	17	1.05	0.95				
	123	2	0.0	0.0	0.0	0.0	1	1.05	9.05617	230.0	15	1.05	0.95				
	124	1	0.0	0.0	0.0	0.0	1	1.01155	2.38339	230.0	16	1.05	0.95				
	125	1	0.0	0.0	0.0	0.0	1	1.02764	-3.9167400000000003	230.0	13	1.05	0.95				
	126	2	0.0	0.0	0.0	0.0	1	1.05	9.05617	230.0	15	1.05	0.95				
	127	2	48.61267281531177	68.0	0.0	0.0	1	1.05	12.52457	230.0	17	1.05	0.95				
	128	2	18.24800030604796	25.0	0.0	0.0	1	1.03745	-11.27673	138.0	12	1.05	0.95				
	201	2	19.802150379531096	22.0	0.0	0.0	2	1.04841	-10.68973	138.0	21	1.05	0.95				
	202	2	35.570529385454	20.0	0.0	0.0	2	1.04844	-10.75906	138.0	22	1.05	0.95				
	203	1	33.00358396588516	37.0	0.0	0.0	2	1.01886	-10.47453	138.0	21	1.05	0.95				
	204	1	27.1362801497278	15.0	0.0	0.0	2	1.0189	-13.48479	138.0	21	1.05	0.95				
	205	1	26.03616068419829	14.000000000000002	0.0	0.0	2	1.03603	-13.61187	138.0	21	1.05	0.95				
	206	1	49.872082437337575	28.000000000000004	0.0	-100.0	2	1.03259	-16.15672	138.0	22	1.05	0.95				
	207	2	45.838311063729385	25.0	0.0	0.0	2	1.03973	-13.46606	138.0	22	1.05	0.95				
	208	1	62.7068095351818	35.0	0.0	0.0	2	1.01203	-16.22359	138.0	22	1.05	0.95				
	209	1	64.17363548922114	36.0	0.0	0.0	2	1.02781	-11.724090000000002	138.0	23	1.05	0.95				
	210	1	71.50776525941785	40.0	0.0	0.0	2	1.05	-13.47986	138.0	23	1.05	0.95				
	211	1	0.0	0.0	0.0	0.0	2	1.02735	-6.93336	230.0	23	1.05	0.95				
	212	2	0.0	0.0	0.0	0.0	2	1.01921	-5.253340000000001	230.0	23	1.05	0.95				
	213	2	97.1772194551063	54.0	0.0	0.0	2	1.03752	-3.2151	230.0	24	1.05	0.95				
	214	1	35.570529385454	39.0	0.0	0.0	2	1.04335	-4.68519	230.0	26	1.05	0.95				
	215	2	116.24595685761774	64.0	0.0	0.0	2	1.04327	4.63351	230.0	26	1.05	0.95				
	216	2	36.670648850983504	20.0	0.0	0.0	2	1.04556	4.70009	230.0	26	1.05	0.95				
	217	1	0.0	0.0	0.0	0.0	2	1.04847	8.81839	230.0	27	1.05	0.95				
	218	2	122.11326067377509	68.0	0.0	0.0	2	1.05	9.99473	230.0	27	1.05	0.95				
	219	1	66.37387442028015	37.0	0.0	0.0	2	1.03946	4.21233	230.0	25	1.05	0.95				
	220	1	46.93843052925889	26.0	0.0	0.0	2	1.0438	5.66449	230.0	25	1.05	0.95				
	221	2	0.0	0.0	0.0	0.0	2	1.05	10.63209	230.0	27	1.05	0.95				
	222	2	0.0	0.0	0.0	0.0	2	1.05	16.43203	230.0	27	1.05	0.95				
	223	2	0.0	0.0	0.0	0.0	2	1.05	7.181510000000001	230.0	25	1.05	0.95				
	224	1	0.0	0.0	0.0	0.0	2	1.01456	-0.9600500000000001	230.0	26	1.05	0.95				
	225	1	0.0	0.0	0.0	0.0	2	1.02735	-6.93336	230.0	23	1.05	0.95				
	226	1	33.00358396588516	37.0	0.0	0.0	2	1.01886	-10.47453	138.0	21	1.05	0.95				
	227	1	35.570529385454	39.0	0.0	0.0	2	1.04335	-4.68519	230.0	26	1.05	0.95				
	228	2	19.802150379531096	22.0	0.0	0.0	2	1.04841	-10.68973	138.0	21	1.05	0.95				
	229	1	0.0	0.0	0.0	0.0	2	1.04847	8.81839	230.0	27	1.05	0.95				
	301	2	44.51580410500611	22.0	0.0	0.0	3	1.0486	-9.34821	138.0	31	1.05	0.95				
	302	2	39.981787020236965	20.0	0.0	0.0	3	1.04864	-9.431	138.0	32	1.05	0.95				
	303	2	37.096503420838424	37.0	0.0	0.0	3	1.01045	-8.57689	138.0	31	1.05	0.95				
	304	1	15.250784739678016	15.0	0.0	0.0	3	1.01785	-12.18784	138.0	31	1.05	0.95				
	305	1	29.265019365328087	14.000000000000002	0.0	0.0	3	1.03609	-12.350050000000001	138.0	31	1.05	0.95				
	306	1	56.05693850260028	28.000000000000004	0.0	-100.0	3	1.0326	-14.942050000000002	138.0	32	1.05	0.95				
	307	2	51.522921417831135	25.0	0.0	0.0	3	1.03804	-12.54795	138.0	32	1.05	0.95				
	308	2	35.2416782497965	35.0	0.0	0.0	3	1.01056	-15.18287	138.0	32	1.05	0.95				
	309	2	72.1320899849636	36.0	0.0	0.0	3	1.02579	-10.44617	138.0	33	1.05	0.95				
	310	2	80.37575741181658	40.0	0.0	0.0	3	1.05	-12.30117	138.0	33	1.05	0.95				
	311	1	0.0	0.0	0.0	0.0	3	1.0283	-5.74069	230.0	33	1.05	0.95				
	312	2	0.0	0.0	0.0	0.0	3	1.019	-4.14604	230.0	33	1.05	0.95				
	313	2	54.61429670290101	54.0	0.0	0.0	3	1.03802	-2.41513	230.0	34	1.05	0.95				
	314	2	79.96357404047393	39.0	0.0	0.0	3	1.04631	-3.20793	230.0	36	1.05	0.95				
	315	2	130.66212871561976	64.0	0.0	0.0	3	1.043	7.05088	230.0	36	1.05	0.95				
	316	2	41.218337134264914	20.0	0.0	0.0	3	1.04558	6.59875	230.0	36	1.05	0.95				
	317	2	0.0	0.0	0.0	0.0	3	1.04785	10.34418	230.0	37	1.05	0.95				
	318	2	137.25706265710215	68.0	0.0	0.0	3	1.05	11.342620000000002	230.0	37	1.05	0.95				
	319	2	74.60519021301948	37.0	0.0	0.0	3	1.03953	5.91539	230.0	35	1.05	0.95				
	320	2	52.759471531859084	26.0	0.0	0.0	3	1.04389	7.19709	230.0	35	1.05	0.95				
	321	2	0.0	0.0	0.0	0.0	3	1.05	12.34122	230.0	37	1.05	0.95				
	322	2	0.0	0.0	0.0	0.0	3	1.05	18.06914	230.0	37	1.05	0.95				
	323	2	0.0	0.0	0.0	0.0	3	1.05	8.62112	230.0	35	1.05	0.95				
	324	2	0.0	0.0	0.0	0.0	3	1.01046	1.30606	230.0	36	1.05	0.95				
	325	1	0.0	0.0	0.0	0.0	3	1.04986	8.99332	230.0	35	1.05	0.95				
	326	2	37.096503420838424	37.0	0.0	0.0	3	1.01045	-8.57689	138.0	31	1.05	0.95				
	327	1	0.0	0.0	0.0	0.0	3	1.0283	-5.74069	230.0	33	1.05	0.95				
	328	1	15.250784739678016	15.0	0.0	0.0	3	1.01785	-12.18784	138.0	31	1.05	0.95				
	329	2	0.0	0.0	0.0	0.0	3	1.05	8.62112	230.0	35	1.05	0.95				
	330	2	0.0	0.0	0.0	0.0	3	1.04785	10.34418	230.0	37	1.05	0.95				
	331	2	54.61429670290101	54.0	0.0	0.0	3	1.03802	-2.41513	230.0	34	1.05	0.95				
	332	2	35.2416782497965	35.0	0.0	0.0	3	1.01056	-15.18287	138.0	32	1.05	0.95				
	333	2	0.0	0.0	0.0	0.0	3	1.05	12.34122	230.0	37	1.05	0.95				
	334	2	0.0	0.0	0.0	0.0	3	1.019	-4.14604	230.0	33	1.05	0.95				
];

%% generator data
%    bus    Pg    Qg    Qmax    Qmin    Vg    mBase    status    Pmax    Pmin    Pc1    Pc2    Qc1min    Qc1max    Qc2min    Qc2max    ramp_agc    ramp_10    ramp_30    ramp_q    apf
mpc.gen = [
	101	0.0	4.96	10.0	0.0	1.0468	100.0	1	20.0	0.0	0.0	0.0	0.0	0.0	0.0	0.0	3.0	3.0	3.0	3.0	0.0				
	101	0.0	4.96	10.0	0.0	1.0468	100.0	1	20.0	0.0	0.0	0.0	0.0	0.0	0.0	0.0	3.0	3.0	3.0	3.0	0.0				
	101	0.0	0.14	30.0	-25.0	1.0468	100.0	1	76.0	0.0	0.0	0.0	0.0	0.0	0.0	0.0	2.0	2.0	2.0	2.0	0.0				
	101	0.0	0.14	30.0	-25.0	1.0468	100.0	1	76.0	0.0	0.0	0.0	0.0	0.0	0.0	0.0	2.0	2.0	2.0	2.0	0.0				
	102	0.0	4.88	10.0	0.0	1.0467	100.0	1	20.0	0.0	0.0	0.0	0.0	0.0	0.0	0.0	3.0	3.0	3.0	3.0	0.0				
	102	0.0	4.88	10.0	0.0	1.0467	100.0	1	20.0	0.0	0.0	0.0	0.0	0.0	0.0	0.0	3.0	3.0	3.0	3.0	0.0				
	102	0.0	-2.31	30.0	-25.0	1.0467	100.0	1	76.0	0.0	0.0	0.0	0.0	0.0	0.0	0.0	2.0	2.0	2.0	2.0	0.0				
	102	0.0	-2.31	30.0	-25.0	1.0467	100.0	1	76.0	0.0	0.0	0.0	0.0	0.0	0.0	0.0	2.0	2.0	2.0	2.0	0.0				
	107	0.0	49.51	150.0	-25.0	1.05	100.0	1	355.0	0.0	0.0	0.0	0.0	0.0	0.0	0.0	4.14	4.14	4.14	4.14	0.0				
	113	0.0	19.0	19.0	-15.0	1.0347	100.0	1	55.00000000000001	0.0	0.0	0.0	0.0	0.0	0.0	0.0	3.7000000000000006	3.7000000000000006	3.7000000000000006	3.7000000000000006	0.0				
	113	0.0	19.0	19.0	-15.0	1.0347	100.0	1	55.00000000000001	0.0	0.0	0.0	0.0	0.0	0.0	0.0	3.7000000000000006	3.7000000000000006	3.7000000000000006	3.7000000000000006	0.0				
	113	0.0	19.0	19.0	-15.0	1.0347	100.0	1	55.00000000000001	0.0	0.0	0.0	0.0	0.0	0.0	0.0	3.7000000000000006	3.7000000000000006	3.7000000000000006	3.7000000000000006	0.0				
	113	0.0	19.0	19.0	-15.0	1.0347	100.0	1	55.00000000000001	0.0	0.0	0.0	0.0	0.0	0.0	0.0	3.7000000000000006	3.7000000000000006	3.7000000000000006	3.7000000000000006	0.0				
	115	0.0	6.0	6.0	0.0	1.0428	100.0	1	12.0	0.0	0.0	0.0	0.0	0.0	0.0	0.0	1.0	1.0	1.0	1.0	0.0				
	115	0.0	6.0	6.0	0.0	1.0428	100.0	1	12.0	0.0	0.0	0.0	0.0	0.0	0.0	0.0	1.0	1.0	1.0	1.0	0.0				
	115	0.0	80.0	80.0	-50.0	1.0428	100.0	1	155.0	0.0	0.0	0.0	0.0	0.0	0.0	0.0	3.0	3.0	3.0	3.0	0.0				
	116	0.0	80.0	80.0	-50.0	1.0461	100.0	1	155.0	0.0	0.0	0.0	0.0	0.0	0.0	0.0	3.0	3.0	3.0	3.0	0.0				
	118	0.0	68.43	150.0	-25.0	1.05	100.0	1	355.0	0.0	0.0	0.0	0.0	0.0	0.0	0.0	4.14	4.14	4.14	4.14	0.0				
	123	155.0	-5.19	80.0	-50.0	1.05	100.0	1	155.0	0.0	0.0	0.0	0.0	0.0	0.0	0.0	3.0	3.0	3.0	3.0	0.0				
	123	220.47430459508087	28.410000000000004	150.0	-25.0	1.05	100.0	1	350.0	0.0	0.0	0.0	0.0	0.0	0.0	0.0	4.0	4.0	4.0	4.0	0.0				
	123	0.0	0.62	19.0	-15.0	1.05	100.0	1	55.00000000000001	0.0	0.0	0.0	0.0	0.0	0.0	0.0	3.7000000000000006	3.7000000000000006	3.7000000000000006	3.7000000000000006	0.0				
	123	0.0	0.62	19.0	-15.0	1.05	100.0	1	55.00000000000001	0.0	0.0	0.0	0.0	0.0	0.0	0.0	3.7000000000000006	3.7000000000000006	3.7000000000000006	3.7000000000000006	0.0				
	123	0.0	0.62	19.0	-15.0	1.05	100.0	1	55.00000000000001	0.0	0.0	0.0	0.0	0.0	0.0	0.0	3.7000000000000006	3.7000000000000006	3.7000000000000006	3.7000000000000006	0.0				
	201	0.0	5.29	10.0	0.0	1.05	100.0	1	20.0	0.0	0.0	0.0	0.0	0.0	0.0	0.0	3.0	3.0	3.0	3.0	0.0				
	201	0.0	5.29	10.0	0.0	1.05	100.0	1	20.0	0.0	0.0	0.0	0.0	0.0	0.0	0.0	3.0	3.0	3.0	3.0	0.0				
	201	0.0	6.99	30.0	-25.0	1.05	100.0	1	76.0	0.0	0.0	0.0	0.0	0.0	0.0	0.0	2.0	2.0	2.0	2.0	0.0				
	202	0.0	5.13	10.0	0.0	1.05	100.0	1	20.0	0.0	0.0	0.0	0.0	0.0	0.0	0.0	3.0	3.0	3.0	3.0	0.0				
	202	0.0	5.13	10.0	0.0	1.05	100.0	1	20.0	0.0	0.0	0.0	0.0	0.0	0.0	0.0	3.0	3.0	3.0	3.0	0.0				
	202	0.0	2.01	30.0	-25.0	1.05	100.0	1	76.0	0.0	0.0	0.0	0.0	0.0	0.0	0.0	2.0	2.0	2.0	2.0	0.0				
	202	0.0	2.01	30.0	-25.0	1.05	100.0	1	76.0	0.0	0.0	0.0	0.0	0.0	0.0	0.0	2.0	2.0	2.0	2.0	0.0				
	207	0.0	19.0	19.0	-15.0	0.9699	100.0	1	55.00000000000001	0.0	0.0	0.0	0.0	0.0	0.0	0.0	3.7000000000000006	3.7000000000000006	3.7000000000000006	3.7000000000000006	0.0				
	207	0.0	19.0	19.0	-15.0	0.9699	100.0	1	55.00000000000001	0.0	0.0	0.0	0.0	0.0	0.0	0.0	3.7000000000000006	3.7000000000000006	3.7000000000000006	3.7000000000000006	0.0				
	213	0.0	135.8	150.0	-25.0	1.05	100.0	1	355.0	0.0	0.0	0.0	0.0	0.0	0.0	0.0	4.14	4.14	4.14	4.14	0.0				
	213	0.0	9.23	19.0	-15.0	1.05	100.0	1	55.00000000000001	0.0	0.0	0.0	0.0	0.0	0.0	0.0	3.7000000000000006	3.7000000000000006	3.7000000000000006	3.7000000000000006	0.0				
	213	0.0	9.23	19.0	-15.0	1.05	100.0	1	55.00000000000001	0.0	0.0	0.0	0.0	0.0	0.0	0.0	3.7000000000000006	3.7000000000000006	3.7000000000000006	3.7000000000000006	0.0				
	215	0.0	19.0	19.0	-15.0	1.0437	100.0	1	55.00000000000001	0.0	0.0	0.0	0.0	0.0	0.0	0.0	3.7000000000000006	3.7000000000000006	3.7000000000000006	3.7000000000000006	0.0				
	215	0.0	19.0	19.0	-15.0	1.0437	100.0	1	55.00000000000001	0.0	0.0	0.0	0.0	0.0	0.0	0.0	3.7000000000000006	3.7000000000000006	3.7000000000000006	3.7000000000000006	0.0				
	216	155.0	80.0	80.0	-50.0	1.0473	100.0	1	155.0	0.0	0.0	0.0	0.0	0.0	0.0	0.0	3.0	3.0	3.0	3.0	0.0				
	218	0.0	60.3	150.0	-25.0	1.05	100.0	1	355.0	0.0	0.0	0.0	0.0	0.0	0.0	0.0	4.14	4.14	4.14	4.14	0.0				
	221	0.0	-7.519999999999999	150.0	-25.0	1.05	100.0	1	355.0	0.0	0.0	0.0	0.0	0.0	0.0	0.0	4.14	4.14	4.14	4.14	0.0				
	223	0.0	-10.31	80.0	-50.0	1.05	100.0	1	155.0	0.0	0.0	0.0	0.0	0.0	0.0	0.0	3.0	3.0	3.0	3.0	0.0				
	223	129.31229484946886	-10.31	80.0	-50.0	1.05	100.0	1	155.0	0.0	0.0	0.0	0.0	0.0	0.0	0.0	3.0	3.0	3.0	3.0	0.0				
	223	0.0	20.59	150.0	-25.0	1.05	100.0	1	350.0	0.0	0.0	0.0	0.0	0.0	0.0	0.0	4.0	4.0	4.0	4.0	0.0				
	223	0.0	0.24	19.0	-15.0	1.05	100.0	1	55.00000000000001	0.0	0.0	0.0	0.0	0.0	0.0	0.0	3.7000000000000006	3.7000000000000006	3.7000000000000006	3.7000000000000006	0.0				
	223	0.0	0.24	19.0	-15.0	1.05	100.0	1	55.00000000000001	0.0	0.0	0.0	0.0	0.0	0.0	0.0	3.7000000000000006	3.7000000000000006	3.7000000000000006	3.7000000000000006	0.0				
	223	0.0	0.24	19.0	-15.0	1.05	100.0	1	55.00000000000001	0.0	0.0	0.0	0.0	0.0	0.0	0.0	3.7000000000000006	3.7000000000000006	3.7000000000000006	3.7000000000000006	0.0				
	301	0.0	7.95	10.0	0.0	1.05	100.0	1	20.0	0.0	0.0	0.0	0.0	0.0	0.0	0.0	3.0	3.0	3.0	3.0	0.0				
	301	0.0	7.95	10.0	0.0	1.05	100.0	1	20.0	0.0	0.0	0.0	0.0	0.0	0.0	0.0	3.0	3.0	3.0	3.0	0.0				
	301	0.0	16.53	19.0	-15.0	1.05	100.0	1	55.00000000000001	0.0	0.0	0.0	0.0	0.0	0.0	0.0	3.7000000000000006	3.7000000000000006	3.7000000000000006	3.7000000000000006	0.0				
	301	0.0	16.53	19.0	-15.0	1.05	100.0	1	55.00000000000001	0.0	0.0	0.0	0.0	0.0	0.0	0.0	3.7000000000000006	3.7000000000000006	3.7000000000000006	3.7000000000000006	0.0				
	302	0.0	6.16	10.0	0.0	1.05	100.0	1	20.0	0.0	0.0	0.0	0.0	0.0	0.0	0.0	3.0	3.0	3.0	3.0	0.0				
	302	0.0	6.16	10.0	0.0	1.05	100.0	1	20.0	0.0	0.0	0.0	0.0	0.0	0.0	0.0	3.0	3.0	3.0	3.0	0.0				
	302	0.0	10.99	19.0	-15.0	1.05	100.0	1	55.00000000000001	0.0	0.0	0.0	0.0	0.0	0.0	0.0	3.7000000000000006	3.7000000000000006	3.7000000000000006	3.7000000000000006	0.0				
	302	0.0	10.99	19.0	-15.0	1.05	100.0	1	55.00000000000001	0.0	0.0	0.0	0.0	0.0	0.0	0.0	3.7000000000000006	3.7000000000000006	3.7000000000000006	3.7000000000000006	0.0				
	307	0.0	19.0	19.0	-15.0	0.9568	100.0	1	55.00000000000001	0.0	0.0	0.0	0.0	0.0	0.0	0.0	3.7000000000000006	3.7000000000000006	3.7000000000000006	3.7000000000000006	0.0				
	307	0.0	19.0	19.0	-15.0	0.9568	100.0	1	55.00000000000001	0.0	0.0	0.0	0.0	0.0	0.0	0.0	3.7000000000000006	3.7000000000000006	3.7000000000000006	3.7000000000000006	0.0				
	313	0.0	150.0	150.0	-25.0	1.035	100.0	1	355.0	0.0	0.0	0.0	0.0	0.0	0.0	0.0	4.14	4.14	4.14	4.14	0.0				
	315	0.0	6.0	6.0	0.0	1.0422	100.0	1	12.0	0.0	0.0	0.0	0.0	0.0	0.0	0.0	1.0	1.0	1.0	1.0	0.0				
	315	0.0	6.0	6.0	0.0	1.0422	100.0	1	12.0	0.0	0.0	0.0	0.0	0.0	0.0	0.0	1.0	1.0	1.0	1.0	0.0				
	315	0.0	6.0	6.0	0.0	1.0422	100.0	1	12.0	0.0	0.0	0.0	0.0	0.0	0.0	0.0	1.0	1.0	1.0	1.0	0.0				
	315	0.0	6.0	6.0	0.0	1.0422	100.0	1	12.0	0.0	0.0	0.0	0.0	0.0	0.0	0.0	1.0	1.0	1.0	1.0	0.0				
	315	0.0	6.0	6.0	0.0	1.0422	100.0	1	12.0	0.0	0.0	0.0	0.0	0.0	0.0	0.0	1.0	1.0	1.0	1.0	0.0				
	315	0.0	19.0	19.0	-15.0	1.0422	100.0	1	55.00000000000001	0.0	0.0	0.0	0.0	0.0	0.0	0.0	3.7000000000000006	3.7000000000000006	3.7000000000000006	3.7000000000000006	0.0				
	315	0.0	19.0	19.0	-15.0	1.0422	100.0	1	55.00000000000001	0.0	0.0	0.0	0.0	0.0	0.0	0.0	3.7000000000000006	3.7000000000000006	3.7000000000000006	3.7000000000000006	0.0				
	315	0.0	60.0	60.0	0.0	1.0422	100.0	1	55.00000000000001	0.0	0.0	0.0	0.0	0.0	0.0	0.0	3.7000000000000006	3.7000000000000006	3.7000000000000006	3.7000000000000006	0.0				
	316	0.0	80.0	80.0	-50.0	1.0449	100.0	1	155.0	0.0	0.0	0.0	0.0	0.0	0.0	0.0	3.0	3.0	3.0	3.0	0.0				
	318	0.0	63.12	150.0	-25.0	1.05	100.0	1	355.0	0.0	0.0	0.0	0.0	0.0	0.0	0.0	4.14	4.14	4.14	4.14	0.0				
	321	0.0	-3.34	150.0	-25.0	1.05	100.0	1	355.0	0.0	0.0	0.0	0.0	0.0	0.0	0.0	4.14	4.14	4.14	4.14	0.0				
	322	0.0	-9.73	19.0	-15.0	1.05	100.0	1	55.00000000000001	0.0	0.0	0.0	0.0	0.0	0.0	0.0	3.7000000000000006	3.7000000000000006	3.7000000000000006	3.7000000000000006	0.0				
	322	0.0	-9.73	19.0	-15.0	1.05	100.0	1	55.00000000000001	0.0	0.0	0.0	0.0	0.0	0.0	0.0	3.7000000000000006	3.7000000000000006	3.7000000000000006	3.7000000000000006	0.0				
	323	0.0	37.41	150.0	-25.0	1.05	100.0	1	355.0	0.0	0.0	0.0	0.0	0.0	0.0	0.0	4.14	4.14	4.14	4.14	0.0				
	323	0.0	37.41	150.0	-25.0	1.05	100.0	1	355.0	0.0	0.0	0.0	0.0	0.0	0.0	0.0	4.14	4.14	4.14	4.14	0.0				
	121	400.0	-21.87	200.0	-50.0	1.05	100.0	1	400.0	0.0	0.0	0.0	0.0	0.0	0.0	0.0	20.0	20.0	20.0	20.0	0.0				
	122	4.2	-6.79	16.0	-10.0	1.05	100.0	1	4.2	0.0	0.0	0.0	0.0	0.0	0.0	0.0	50.0	50.0	50.0	50.0	0.0				
	122	4.2	-6.79	16.0	-10.0	1.05	100.0	1	4.2	0.0	0.0	0.0	0.0	0.0	0.0	0.0	50.0	50.0	50.0	50.0	0.0				
	122	4.2	-6.79	16.0	-10.0	1.05	100.0	1	4.2	0.0	0.0	0.0	0.0	0.0	0.0	0.0	50.0	50.0	50.0	50.0	0.0				
	122	4.2	-6.79	16.0	-10.0	1.05	100.0	1	4.2	0.0	0.0	0.0	0.0	0.0	0.0	0.0	50.0	50.0	50.0	50.0	0.0				
	122	4.2	-6.79	16.0	-10.0	1.05	100.0	1	4.2	0.0	0.0	0.0	0.0	0.0	0.0	0.0	50.0	50.0	50.0	50.0	0.0				
	122	4.2	-6.79	16.0	-10.0	1.05	100.0	1	4.2	0.0	0.0	0.0	0.0	0.0	0.0	0.0	50.0	50.0	50.0	50.0	0.0				
	201	9.299999999999997	4.15	16.0	-10.0	1.05	100.0	1	9.3	0.0	0.0	0.0	0.0	0.0	0.0	0.0	50.0	50.0	50.0	50.0	0.0				
	215	9.3	16.0	16.0	-10.0	1.0437	100.0	1	9.3	0.0	0.0	0.0	0.0	0.0	0.0	0.0	50.0	50.0	50.0	50.0	0.0				
	215	9.3	16.0	16.0	-10.0	1.0437	100.0	1	9.3	0.0	0.0	0.0	0.0	0.0	0.0	0.0	50.0	50.0	50.0	50.0	0.0				
	215	9.3	16.0	16.0	-10.0	1.0437	100.0	1	9.3	0.0	0.0	0.0	0.0	0.0	0.0	0.0	50.0	50.0	50.0	50.0	0.0				
	222	9.3	-6.97	16.0	-10.0	1.05	100.0	1	9.3	0.0	0.0	0.0	0.0	0.0	0.0	0.0	50.0	50.0	50.0	50.0	0.0				
	222	9.3	-6.97	16.0	-10.0	1.05	100.0	1	9.3	0.0	0.0	0.0	0.0	0.0	0.0	0.0	50.0	50.0	50.0	50.0	0.0				
	222	9.3	-6.97	16.0	-10.0	1.05	100.0	1	9.3	0.0	0.0	0.0	0.0	0.0	0.0	0.0	50.0	50.0	50.0	50.0	0.0				
	222	9.3	-6.97	16.0	-10.0	1.05	100.0	1	9.3	0.0	0.0	0.0	0.0	0.0	0.0	0.0	50.0	50.0	50.0	50.0	0.0				
	222	9.3	-6.97	16.0	-10.0	1.05	100.0	1	9.3	0.0	0.0	0.0	0.0	0.0	0.0	0.0	50.0	50.0	50.0	50.0	0.0				
	222	9.3	-6.97	16.0	-10.0	1.05	100.0	1	9.3	0.0	0.0	0.0	0.0	0.0	0.0	0.0	50.0	50.0	50.0	50.0	0.0				
	322	16.5	-5.13	16.0	-10.0	1.05	100.0	1	16.5	0.0	0.0	0.0	0.0	0.0	0.0	0.0	50.0	50.0	50.0	50.0	0.0				
	322	16.5	-5.13	16.0	-10.0	1.05	100.0	1	16.5	0.0	0.0	0.0	0.0	0.0	0.0	0.0	50.0	50.0	50.0	50.0	0.0				
	322	16.5	-5.13	16.0	-10.0	1.05	100.0	1	16.5	0.0	0.0	0.0	0.0	0.0	0.0	0.0	50.0	50.0	50.0	50.0	0.0				
	322	16.5	-5.13	16.0	-10.0	1.05	100.0	1	16.5	0.0	0.0	0.0	0.0	0.0	0.0	0.0	50.0	50.0	50.0	50.0	0.0				
	320	0.0	0.0	0.0	0.0	1.0	100.0	1	0.0	0.0	0.0	0.0	0.0	0.0	0.0	0.0	51.6	51.6	51.6	51.6	0.0				
	314	0.0	0.0	0.0	0.0	1.0	100.0	1	0.0	0.0	0.0	0.0	0.0	0.0	0.0	0.0	51.6	51.6	51.6	51.6	0.0				
	314	0.0	0.0	0.0	0.0	1.0	100.0	1	0.0	0.0	0.0	0.0	0.0	0.0	0.0	0.0	51.6	51.6	51.6	51.6	0.0				
	313	0.0	0.0	0.0	0.0	1.0	100.0	1	0.0	0.0	0.0	0.0	0.0	0.0	0.0	0.0	95.1	95.1	95.1	95.1	0.0				
	314	0.0	0.0	0.0	0.0	1.0	100.0	1	0.0	0.0	0.0	0.0	0.0	0.0	0.0	0.0	92.7	92.7	92.7	92.7	0.0				
	314	0.0	0.0	0.0	0.0	1.0	100.0	1	0.0	0.0	0.0	0.0	0.0	0.0	0.0	0.0	51.6	51.6	51.6	51.6	0.0				
	313	0.0	0.0	0.0	0.0	1.0	100.0	1	0.0	0.0	0.0	0.0	0.0	0.0	0.0	0.0	93.3	93.3	93.3	93.3	0.0				
	310	0.0	0.0	0.0	0.0	1.0	100.0	1	0.0	0.0	0.0	0.0	0.0	0.0	0.0	0.0	51.7	51.7	51.7	51.7	0.0				
	324	0.0	0.0	0.0	0.0	1.0	100.0	1	0.0	0.0	0.0	0.0	0.0	0.0	0.0	0.0	49.7	49.7	49.7	49.7	0.0				
	312	0.0	0.0	0.0	0.0	1.0	100.0	1	0.0	0.0	0.0	0.0	0.0	0.0	0.0	0.0	94.1	94.1	94.1	94.1	0.0				
	310	0.0	0.0	0.0	0.0	1.0	100.0	1	0.0	0.0	0.0	0.0	0.0	0.0	0.0	0.0	51.6	51.6	51.6	51.6	0.0				
	324	0.0	0.0	0.0	0.0	1.0	100.0	1	0.0	0.0	0.0	0.0	0.0	0.0	0.0	0.0	51.6	51.6	51.6	51.6	0.0				
	324	0.0	0.0	0.0	0.0	1.0	100.0	1	0.0	0.0	0.0	0.0	0.0	0.0	0.0	0.0	51.0	51.0	51.0	51.0	0.0				
	113	0.0	0.0	0.0	0.0	1.0	100.0	1	0.0	0.0	0.0	0.0	0.0	0.0	0.0	0.0	93.6	93.6	93.6	93.6	0.0				
	319	0.0	0.0	0.0	0.0	1.0	100.0	1	0.0	0.0	0.0	0.0	0.0	0.0	0.0	0.0	188.2	188.2	188.2	188.2	0.0				
	215	0.0	0.0	0.0	0.0	1.0	100.0	1	0.0	0.0	0.0	0.0	0.0	0.0	0.0	0.0	125.1	125.1	125.1	125.1	0.0				
	102	0.0	0.0	0.0	0.0	1.0	100.0	1	0.0	0.0	0.0	0.0	0.0	0.0	0.0	0.0	25.6	25.6	25.6	25.6	0.0				
	101	0.0	0.0	0.0	0.0	1.0	100.0	1	0.0	0.0	0.0	0.0	0.0	0.0	0.0	0.0	25.900000000000002	25.900000000000002	25.900000000000002	25.900000000000002	0.0				
	102	0.0	0.0	0.0	0.0	1.0	100.0	1	0.0	0.0	0.0	0.0	0.0	0.0	0.0	0.0	25.3	25.3	25.3	25.3	0.0				
	104	0.0	0.0	0.0	0.0	1.0	100.0	1	0.0	0.0	0.0	0.0	0.0	0.0	0.0	0.0	26.8	26.8	26.8	26.8	0.0				
	212	0.0	0.0	0.0	0.0	1.0	100.0	1	0.0	0.0	0.0	0.0	0.0	0.0	0.0	0.0	20.0	20.0	20.0	20.0	0.0				
	101	0.0	0.0	0.0	0.0	1.0	100.0	1	0.0	0.0	0.0	0.0	0.0	0.0	0.0	0.0	26.700000000000003	26.700000000000003	26.700000000000003	26.700000000000003	0.0				
	101	0.0	0.0	0.0	0.0	1.0	100.0	1	0.0	0.0	0.0	0.0	0.0	0.0	0.0	0.0	26.200000000000003	26.200000000000003	26.200000000000003	26.200000000000003	0.0				
	101	0.0	0.0	0.0	0.0	1.0	100.0	1	0.0	0.0	0.0	0.0	0.0	0.0	0.0	0.0	25.8	25.8	25.8	25.8	0.0				
	103	0.0	0.0	0.0	0.0	1.0	100.0	1	0.0	0.0	0.0	0.0	0.0	0.0	0.0	0.0	61.5	61.5	61.5	61.5	0.0				
	119	0.0	0.0	0.0	0.0	1.0	100.0	1	0.0	0.0	0.0	0.0	0.0	0.0	0.0	0.0	66.6	66.6	66.6	66.6	0.0				
	308	0.0	0.0	0.0	0.0	1.0	100.0	1	0.0	0.0	0.0	0.0	0.0	0.0	0.0	0.0	100.9	100.9	100.9	100.9	0.0				
	313	0.0	0.0	0.0	0.0	1.0	100.0	1	0.0	0.0	0.0	0.0	0.0	0.0	0.0	0.0	101.70000000000002	101.70000000000002	101.70000000000002	101.70000000000002	0.0				
	313	0.0	0.0	0.0	0.0	1.0	100.0	1	0.0	0.0	0.0	0.0	0.0	0.0	0.0	0.0	63.1	63.1	63.1	63.1	0.0				
	313	0.0	0.0	0.0	0.0	1.0	100.0	1	0.0	0.0	0.0	0.0	0.0	0.0	0.0	0.0	65.4	65.4	65.4	65.4	0.0				
	313	0.0	0.0	0.0	0.0	1.0	100.0	1	0.0	0.0	0.0	0.0	0.0	0.0	0.0	0.0	67.0	67.0	67.0	67.0	0.0				
	313	0.0	0.0	0.0	0.0	1.0	100.0	1	0.0	0.0	0.0	0.0	0.0	0.0	0.0	0.0	64.8	64.8	64.8	64.8	0.0				
	313	0.0	0.0	0.0	0.0	1.0	100.0	1	0.0	0.0	0.0	0.0	0.0	0.0	0.0	0.0	63.800000000000004	63.800000000000004	63.800000000000004	63.800000000000004	0.0				
	313	0.0	0.0	0.0	0.0	1.0	100.0	1	0.0	0.0	0.0	0.0	0.0	0.0	0.0	0.0	64.1	64.1	64.1	64.1	0.0				
	313	0.0	0.0	0.0	0.0	1.0	100.0	1	0.0	0.0	0.0	0.0	0.0	0.0	0.0	0.0	66.6	66.6	66.6	66.6	0.0				
	313	0.0	0.0	0.0	0.0	1.0	100.0	1	0.0	0.0	0.0	0.0	0.0	0.0	0.0	0.0	62.4	62.4	62.4	62.4	0.0				
	313	0.0	0.0	0.0	0.0	1.0	100.0	1	0.0	0.0	0.0	0.0	0.0	0.0	0.0	0.0	66.9	66.9	66.9	66.9	0.0				
	313	0.0	0.0	0.0	0.0	1.0	100.0	1	0.0	0.0	0.0	0.0	0.0	0.0	0.0	0.0	65.2	65.2	65.2	65.2	0.0				
	313	0.0	0.0	0.0	0.0	1.0	100.0	1	0.0	0.0	0.0	0.0	0.0	0.0	0.0	0.0	27.800000000000004	27.800000000000004	27.800000000000004	27.800000000000004	0.0				
	320	0.0	0.0	0.0	0.0	1.0	100.0	1	0.0	0.0	0.0	0.0	0.0	0.0	0.0	0.0	27.3	27.3	27.3	27.3	0.0				
	320	0.0	0.0	0.0	0.0	1.0	100.0	1	0.0	0.0	0.0	0.0	0.0	0.0	0.0	0.0	27.0	27.0	27.0	27.0	0.0				
	320	0.0	0.0	0.0	0.0	1.0	100.0	1	0.0	0.0	0.0	0.0	0.0	0.0	0.0	0.0	28.300000000000004	28.300000000000004	28.300000000000004	28.300000000000004	0.0				
	313	0.0	0.0	0.0	0.0	1.0	100.0	1	0.0	0.0	0.0	0.0	0.0	0.0	0.0	0.0	27.200000000000003	27.200000000000003	27.200000000000003	27.200000000000003	0.0				
	320	0.0	0.0	0.0	0.0	1.0	100.0	1	0.0	0.0	0.0	0.0	0.0	0.0	0.0	0.0	27.0	27.0	27.0	27.0	0.0				
	320	0.0	0.0	0.0	0.0	1.0	100.0	1	0.0	0.0	0.0	0.0	0.0	0.0	0.0	0.0	28.199999999999996	28.199999999999996	28.199999999999996	28.199999999999996	0.0				
	118	0.0	0.0	0.0	0.0	1.0	100.0	1	0.0	0.0	0.0	0.0	0.0	0.0	0.0	0.0	9.3	9.3	9.3	9.3	0.0				
	118	0.0	0.0	0.0	0.0	1.0	100.0	1	0.0	0.0	0.0	0.0	0.0	0.0	0.0	0.0	9.7	9.7	9.7	9.7	0.0				
	118	0.0	0.0	0.0	0.0	1.0	100.0	1	0.0	0.0	0.0	0.0	0.0	0.0	0.0	0.0	9.4	9.4	9.4	9.4	0.0				
	118	0.0	0.0	0.0	0.0	1.0	100.0	1	0.0	0.0	0.0	0.0	0.0	0.0	0.0	0.0	9.1	9.1	9.1	9.1	0.0				
	118	0.0	0.0	0.0	0.0	1.0	100.0	1	0.0	0.0	0.0	0.0	0.0	0.0	0.0	0.0	9.1	9.1	9.1	9.1	0.0				
	118	0.0	0.0	0.0	0.0	1.0	100.0	1	0.0	0.0	0.0	0.0	0.0	0.0	0.0	0.0	9.7	9.7	9.7	9.7	0.0				
	320	0.0	0.0	0.0	0.0	1.0	100.0	1	0.0	0.0	0.0	0.0	0.0	0.0	0.0	0.0	9.4	9.4	9.4	9.4	0.0				
	118	0.0	0.0	0.0	0.0	1.0	100.0	1	0.0	0.0	0.0	0.0	0.0	0.0	0.0	0.0	11.8	11.8	11.8	11.8	0.0				
	118	0.0	0.0	0.0	0.0	1.0	100.0	1	0.0	0.0	0.0	0.0	0.0	0.0	0.0	0.0	11.2	11.2	11.2	11.2	0.0				
	118	0.0	0.0	0.0	0.0	1.0	100.0	1	0.0	0.0	0.0	0.0	0.0	0.0	0.0	0.0	10.3	10.3	10.3	10.3	0.0				
	118	0.0	0.0	0.0	0.0	1.0	100.0	1	0.0	0.0	0.0	0.0	0.0	0.0	0.0	0.0	4.5	4.5	4.5	4.5	0.0				
	213	0.0	0.0	0.0	0.0	1.0	100.0	1	0.0	0.0	0.0	0.0	0.0	0.0	0.0	0.0	13.200000000000001	13.200000000000001	13.200000000000001	13.200000000000001	0.0				
	309	142.8	0.0	0.0	0.0	1.0	100.0	1	142.8	0.0	0.0	0.0	0.0	0.0	0.0	0.0	148.3	148.3	148.3	148.3	0.0				
	317	523.2743126389702	0.0	0.0	0.0	1.0	100.0	1	795.1	0.0	0.0	0.0	0.0	0.0	0.0	0.0	799.1	799.1	799.1	799.1	0.0				
	303	378.68400245184716	0.0	0.0	0.0	1.0	100.0	1	480.79999999999995	0.0	0.0	0.0	0.0	0.0	0.0	0.0	847.0000000000001	847.0000000000001	847.0000000000001	847.0000000000001	0.0				
	122	713.2	0.0	0.0	0.0	1.0	100.0	1	713.2	0.0	0.0	0.0	0.0	0.0	0.0	0.0	713.5	713.5	713.5	713.5	0.0				
	313	50.0	0.0	0.0	0.0	1.0	100.0	1	50.0	0.0	0.0	0.0	0.0	0.0	0.0	0.0	50.0	50.0	50.0	50.0	0.0				
];

%% branch data
%    f_bus    t_bus    r    x    b    rateA    rateB    rateC    ratio    angle    status    angmin    angmax
mpc.branch = [
	101	102	0.003	0.014	0.461	175.0	175.0	175.0	0	0	1	-59.99999999999999	59.99999999999999								
	101	103	0.055	0.211	0.057	175.0	175.0	175.0	0	0	1	-59.99999999999999	59.99999999999999								
	101	105	0.022	0.085	0.023	175.0	175.0	175.0	0	0	1	-59.99999999999999	59.99999999999999								
	102	104	0.033	0.127	0.034	175.0	175.0	175.0	0	0	1	-59.99999999999999	59.99999999999999								
	102	106	0.05	0.192	0.052	175.0	175.0	175.0	0	0	1	-59.99999999999999	59.99999999999999								
	103	109	0.031	0.119	0.032	175.0	175.0	175.0	0	0	1	-59.99999999999999	59.99999999999999								
	103	124	0.002	0.084	0.0	400.0	400.0	400.0	1.015	0.0	1	-59.99999999999999	59.99999999999999								
	104	109	0.027	0.104	0.028	175.0	175.0	175.0	0	0	1	-59.99999999999999	59.99999999999999								
	105	110	0.023	0.088	0.024	175.0	175.0	175.0	0	0	1	-59.99999999999999	59.99999999999999								
	106	110	0.014	0.061	2.459	175.0	175.0	175.0	0	0	1	-59.99999999999999	59.99999999999999								
	107	108	0.016	0.061	0.017	175.0	175.0	175.0	0	0	1	-59.99999999999999	59.99999999999999								
	128	203	0.042	0.161	0.044	175.0	175.0	175.0	0	0	1	-59.99999999999999	59.99999999999999								
	108	109	0.043	0.165	0.045	175.0	175.0	175.0	0	0	1	-59.99999999999999	59.99999999999999								
	108	110	0.043	0.165	0.045	175.0	175.0	175.0	0	0	1	-59.99999999999999	59.99999999999999								
	109	125	0.002	0.084	0.0	400.0	400.0	400.0	1.03	0.0	1	-59.99999999999999	59.99999999999999								
	109	112	0.002	0.084	0.0	400.0	400.0	400.0	1.03	0.0	1	-59.99999999999999	59.99999999999999								
	110	111	0.002	0.084	0.0	400.0	400.0	400.0	1.015	0.0	1	-59.99999999999999	59.99999999999999								
	110	112	0.002	0.084	0.0	400.0	400.0	400.0	1.015	0.0	1	-59.99999999999999	59.99999999999999								
	125	113	0.006	0.048	0.1	500.0	500.0	500.0	0	0	1	-59.99999999999999	59.99999999999999								
	125	114	0.005	0.042	0.088	500.0	500.0	500.0	0	0	1	-59.99999999999999	59.99999999999999								
	112	113	0.006	0.048	0.1	500.0	500.0	500.0	0	0	1	-59.99999999999999	59.99999999999999								
	112	123	0.012	0.097	0.203	500.0	500.0	500.0	0	0	1	-59.99999999999999	59.99999999999999								
	113	123	0.011	0.087	0.182	500.0	500.0	500.0	0	0	1	-59.99999999999999	59.99999999999999								
	113	215	0.01	0.075	0.158	500.0	500.0	500.0	0	0	1	-59.99999999999999	59.99999999999999								
	114	116	0.005	0.059	0.082	500.0	500.0	500.0	0	0	1	-59.99999999999999	59.99999999999999								
	115	116	0.002	0.017	0.036	500.0	500.0	500.0	0	0	1	-59.99999999999999	59.99999999999999								
	115	121	0.006	0.049	0.103	500.0	500.0	500.0	0	0	1	-59.99999999999999	59.99999999999999								
	115	121	0.006	0.049	0.103	500.0	500.0	500.0	0	0	1	-59.99999999999999	59.99999999999999								
	115	124	0.007	0.052	0.109	500.0	500.0	500.0	0	0	1	-59.99999999999999	59.99999999999999								
	116	117	0.003	0.026	0.055	500.0	500.0	500.0	0	0	1	-59.99999999999999	59.99999999999999								
	116	119	0.003	0.023	0.049	500.0	500.0	500.0	0	0	1	-59.99999999999999	59.99999999999999								
	117	118	0.002	0.014	0.03	500.0	500.0	500.0	0	0	1	-59.99999999999999	59.99999999999999								
	117	122	0.014	0.105	0.221	500.0	500.0	500.0	0	0	1	-59.99999999999999	59.99999999999999								
	127	121	0.003	0.026	0.055	500.0	500.0	500.0	0	0	1	-59.99999999999999	59.99999999999999								
	127	121	0.003	0.026	0.055	500.0	500.0	500.0	0	0	1	-59.99999999999999	59.99999999999999								
	119	120	0.005	0.04	0.083	500.0	500.0	500.0	0	0	1	-59.99999999999999	59.99999999999999								
	119	120	0.005	0.04	0.083	500.0	500.0	500.0	0	0	1	-59.99999999999999	59.99999999999999								
	120	126	0.003	0.022	0.046	500.0	500.0	500.0	0	0	1	-59.99999999999999	59.99999999999999								
	120	126	0.003	0.022	0.046	500.0	500.0	500.0	0	0	1	-59.99999999999999	59.99999999999999								
	121	122	0.009	0.068	0.142	500.0	500.0	500.0	0	0	1	-59.99999999999999	59.99999999999999								
	126	217	0.01	0.074	0.155	500.0	500.0	500.0	0	0	1	-59.99999999999999	59.99999999999999								
	201	202	0.003	0.014	0.461	175.0	175.0	175.0	0	0	1	-59.99999999999999	59.99999999999999								
	228	203	0.055	0.211	0.057	175.0	175.0	175.0	0	0	1	-59.99999999999999	59.99999999999999								
	228	205	0.022	0.085	0.023	175.0	175.0	175.0	0	0	1	-59.99999999999999	59.99999999999999								
	202	204	0.033	0.127	0.034	175.0	175.0	175.0	0	0	1	-59.99999999999999	59.99999999999999								
	202	206	0.05	0.192	0.052	175.0	175.0	175.0	0	0	1	-59.99999999999999	59.99999999999999								
	226	209	0.031	0.119	0.032	175.0	175.0	175.0	0	0	1	-59.99999999999999	59.99999999999999								
	226	224	0.002	0.084	0.0	400.0	400.0	400.0	1.015	0.0	1	-59.99999999999999	59.99999999999999								
	204	209	0.027	0.104	0.028	175.0	175.0	175.0	0	0	1	-59.99999999999999	59.99999999999999								
	205	210	0.023	0.088	0.024	175.0	175.0	175.0	0	0	1	-59.99999999999999	59.99999999999999								
	206	210	0.014	0.061	2.459	175.0	175.0	175.0	0	0	1	-59.99999999999999	59.99999999999999								
	207	208	0.016	0.061	0.017	175.0	175.0	175.0	0	0	1	-59.99999999999999	59.99999999999999								
	208	209	0.043	0.165	0.045	175.0	175.0	175.0	0	0	1	-59.99999999999999	59.99999999999999								
	208	210	0.043	0.165	0.045	175.0	175.0	175.0	0	0	1	-59.99999999999999	59.99999999999999								
	209	211	0.002	0.084	0.0	400.0	400.0	400.0	1.03	0.0	1	-59.99999999999999	59.99999999999999								
	209	212	0.002	0.084	0.0	400.0	400.0	400.0	1.03	0.0	1	-59.99999999999999	59.99999999999999								
	210	211	0.002	0.084	0.0	400.0	400.0	400.0	1.015	0.0	1	-59.99999999999999	59.99999999999999								
	210	212	0.002	0.084	0.0	400.0	400.0	400.0	1.015	0.0	1	-59.99999999999999	59.99999999999999								
	225	213	0.006	0.048	0.1	500.0	500.0	500.0	0	0	1	-59.99999999999999	59.99999999999999								
	225	214	0.005	0.042	0.088	500.0	500.0	500.0	0	0	1	-59.99999999999999	59.99999999999999								
	212	213	0.006	0.048	0.1	500.0	500.0	500.0	0	0	1	-59.99999999999999	59.99999999999999								
	212	223	0.012	0.097	0.203	500.0	500.0	500.0	0	0	1	-59.99999999999999	59.99999999999999								
	213	223	0.011	0.087	0.182	500.0	500.0	500.0	0	0	1	-59.99999999999999	59.99999999999999								
	227	216	0.005	0.059	0.082	500.0	500.0	500.0	0	0	1	-59.99999999999999	59.99999999999999								
	215	216	0.002	0.017	0.036	500.0	500.0	500.0	0	0	1	-59.99999999999999	59.99999999999999								
	215	221	0.006	0.049	0.103	500.0	500.0	500.0	0	0	1	-59.99999999999999	59.99999999999999								
	215	221	0.006	0.049	0.103	500.0	500.0	500.0	0	0	1	-59.99999999999999	59.99999999999999								
	215	224	0.007	0.052	0.109	500.0	500.0	500.0	0	0	1	-59.99999999999999	59.99999999999999								
	216	217	0.003	0.026	0.055	500.0	500.0	500.0	0	0	1	-59.99999999999999	59.99999999999999								
	216	219	0.003	0.023	0.049	500.0	500.0	500.0	0	0	1	-59.99999999999999	59.99999999999999								
	229	218	0.002	0.014	0.03	500.0	500.0	500.0	0	0	1	-59.99999999999999	59.99999999999999								
	229	222	0.014	0.105	0.221	500.0	500.0	500.0	0	0	1	-59.99999999999999	59.99999999999999								
	218	221	0.003	0.026	0.055	500.0	500.0	500.0	0	0	1	-59.99999999999999	59.99999999999999								
	218	221	0.003	0.026	0.055	500.0	500.0	500.0	0	0	1	-59.99999999999999	59.99999999999999								
	219	220	0.005	0.04	0.083	500.0	500.0	500.0	0	0	1	-59.99999999999999	59.99999999999999								
	219	220	0.005	0.04	0.083	500.0	500.0	500.0	0	0	1	-59.99999999999999	59.99999999999999								
	220	223	0.003	0.022	0.046	500.0	500.0	500.0	0	0	1	-59.99999999999999	59.99999999999999								
	220	223	0.003	0.022	0.046	500.0	500.0	500.0	0	0	1	-59.99999999999999	59.99999999999999								
	221	222	0.009	0.068	0.142	500.0	500.0	500.0	0	0	1	-59.99999999999999	59.99999999999999								
	301	302	0.003	0.014	0.461	175.0	175.0	175.0	0	0	1	-59.99999999999999	59.99999999999999								
	301	326	0.055	0.211	0.057	175.0	175.0	175.0	0	0	1	-59.99999999999999	59.99999999999999								
	301	305	0.022	0.085	0.023	175.0	175.0	175.0	0	0	1	-59.99999999999999	59.99999999999999								
	302	304	0.033	0.127	0.034	175.0	175.0	175.0	0	0	1	-59.99999999999999	59.99999999999999								
	302	306	0.05	0.192	0.052	175.0	175.0	175.0	0	0	1	-59.99999999999999	59.99999999999999								
	326	309	0.031	0.119	0.032	175.0	175.0	175.0	0	0	1	-59.99999999999999	59.99999999999999								
	303	324	0.002	0.084	0.0	400.0	400.0	400.0	1.015	0.0	1	-59.99999999999999	59.99999999999999								
	328	309	0.027	0.104	0.028	175.0	175.0	175.0	0	0	1	-59.99999999999999	59.99999999999999								
	305	310	0.023	0.088	0.024	175.0	175.0	175.0	0	0	1	-59.99999999999999	59.99999999999999								
	306	310	0.014	0.061	2.459	175.0	175.0	175.0	0	0	1	-59.99999999999999	59.99999999999999								
	307	332	0.016	0.061	0.017	175.0	175.0	175.0	0	0	1	-59.99999999999999	59.99999999999999								
	332	309	0.043	0.165	0.045	175.0	175.0	175.0	0	0	1	-59.99999999999999	59.99999999999999								
	308	310	0.043	0.165	0.045	175.0	175.0	175.0	0	0	1	-59.99999999999999	59.99999999999999								
	309	327	0.002	0.084	0.0	400.0	400.0	400.0	1.03	0.0	1	-59.99999999999999	59.99999999999999								
	309	334	0.002	0.084	0.0	400.0	400.0	400.0	1.03	0.0	1	-59.99999999999999	59.99999999999999								
	310	327	0.002	0.084	0.0	400.0	400.0	400.0	1.015	0.0	1	-59.99999999999999	59.99999999999999								
	310	312	0.002	0.084	0.0	400.0	400.0	400.0	1.015	0.0	1	-59.99999999999999	59.99999999999999								
	311	331	0.006	0.048	0.1	500.0	500.0	500.0	0	0	1	-59.99999999999999	59.99999999999999								
	327	314	0.005	0.042	0.088	500.0	500.0	500.0	0	0	1	-59.99999999999999	59.99999999999999								
	312	331	0.006	0.048	0.1	500.0	500.0	500.0	0	0	1	-59.99999999999999	59.99999999999999								
	312	329	0.012	0.097	0.203	500.0	500.0	500.0	0	0	1	-59.99999999999999	59.99999999999999								
	313	329	0.011	0.087	0.182	500.0	500.0	500.0	0	0	1	-59.99999999999999	59.99999999999999								
	314	316	0.005	0.059	0.082	500.0	500.0	500.0	0	0	1	-59.99999999999999	59.99999999999999								
	315	316	0.002	0.017	0.036	500.0	500.0	500.0	0	0	1	-59.99999999999999	59.99999999999999								
	315	333	0.006	0.049	0.103	500.0	500.0	500.0	0	0	1	-59.99999999999999	59.99999999999999								
	315	333	0.006	0.049	0.103	500.0	500.0	500.0	0	0	1	-59.99999999999999	59.99999999999999								
	315	324	0.007	0.052	0.109	500.0	500.0	500.0	0	0	1	-59.99999999999999	59.99999999999999								
	316	330	0.003	0.026	0.055	500.0	500.0	500.0	0	0	1	-59.99999999999999	59.99999999999999								
	316	319	0.003	0.023	0.049	500.0	500.0	500.0	0	0	1	-59.99999999999999	59.99999999999999								
	330	318	0.002	0.014	0.03	500.0	500.0	500.0	0	0	1	-59.99999999999999	59.99999999999999								
	317	322	0.014	0.105	0.221	500.0	500.0	500.0	0	0	1	-59.99999999999999	59.99999999999999								
	318	333	0.003	0.026	0.055	500.0	500.0	500.0	0	0	1	-59.99999999999999	59.99999999999999								
	318	333	0.003	0.026	0.055	500.0	500.0	500.0	0	0	1	-59.99999999999999	59.99999999999999								
	319	320	0.005	0.04	0.083	500.0	500.0	500.0	0	0	1	-59.99999999999999	59.99999999999999								
	319	320	0.005	0.04	0.083	500.0	500.0	500.0	0	0	1	-59.99999999999999	59.99999999999999								
	320	323	0.003	0.022	0.046	500.0	500.0	500.0	0	0	1	-59.99999999999999	59.99999999999999								
	320	323	0.003	0.022	0.046	500.0	500.0	500.0	0	0	1	-59.99999999999999	59.99999999999999								
	321	322	0.009	0.068	0.142	500.0	500.0	500.0	0	0	1	-59.99999999999999	59.99999999999999								
	325	121	0.012	0.097	0.203	500.0	500.0	500.0	0	0	1	-59.99999999999999	59.99999999999999								
	318	223	0.013	0.104	0.218	500.0	500.0	500.0	0	0	1	-59.99999999999999	59.99999999999999								
	329	325	0.0	0.009	0.0	722.0	722.0	722.0	1.0	0.0	1	-59.99999999999999	59.99999999999999								
	111	125	0.0	0.0	0.218	2000.0	2000.0	2000.0	0	0	1	-59.99999999999999	59.99999999999999								
	303	326	0.0	0.0	0.218	2000.0	2000.0	2000.0	0	0	1	-59.99999999999999	59.99999999999999								
	211	225	0.0	0.0	0.218	2000.0	2000.0	2000.0	0	0	1	-59.99999999999999	59.99999999999999								
	123	126	0.0	0.0	0.218	2000.0	2000.0	2000.0	0	0	1	-59.99999999999999	59.99999999999999								
	311	327	0.0	0.0	0.218	2000.0	2000.0	2000.0	0	0	1	-59.99999999999999	59.99999999999999								
	304	328	0.0	0.0	0.218	2000.0	2000.0	2000.0	0	0	1	-59.99999999999999	59.99999999999999								
	323	329	0.0	0.0	0.218	2000.0	2000.0	2000.0	0	0	1	-59.99999999999999	59.99999999999999								
	317	330	0.0	0.0	0.218	2000.0	2000.0	2000.0	0	0	1	-59.99999999999999	59.99999999999999								
	313	331	0.0	0.0	0.218	2000.0	2000.0	2000.0	0	0	1	-59.99999999999999	59.99999999999999								
	203	226	0.0	0.0	0.218	2000.0	2000.0	2000.0	0	0	1	-59.99999999999999	59.99999999999999								
	308	332	0.0	0.0	0.218	2000.0	2000.0	2000.0	0	0	1	-59.99999999999999	59.99999999999999								
	321	333	0.0	0.0	0.218	2000.0	2000.0	2000.0	0	0	1	-59.99999999999999	59.99999999999999								
	118	127	0.0	0.0	0.218	2000.0	2000.0	2000.0	0	0	1	-59.99999999999999	59.99999999999999								
	312	334	0.0	0.0	0.218	2000.0	2000.0	2000.0	0	0	1	-59.99999999999999	59.99999999999999								
	214	227	0.0	0.0	0.218	2000.0	2000.0	2000.0	0	0	1	-59.99999999999999	59.99999999999999								
	201	228	0.0	0.0	0.218	2000.0	2000.0	2000.0	0	0	1	-59.99999999999999	59.99999999999999								
	217	229	0.0	0.0	0.218	2000.0	2000.0	2000.0	0	0	1	-59.99999999999999	59.99999999999999								
	107	128	0.0	0.0	0.218	2000.0	2000.0	2000.0	0	0	1	-59.99999999999999	59.99999999999999								
];

%% dcline data
%    f_bus    t_bus    status    Pf    Pt    Qf    Qt    Vf    Vt    Pmin    Pmax    QminF    QmaxF    QminT    QmaxT    loss0    loss1
mpc.dcline = [
	113	316	1	0.0	0.0	0.0	0.0	1.0	1.0	-100.0	100.0	-9999.0	9999.0	-9999.0	9999.0	0.0	0.0	0.0	0.0	0.0	0.0	0.0	0.0
];

%%-----  OPF Data  -----%%
%% cost data
%    1    startup    shutdown    n    x1    y1    ...    xn    yn
%    2    startup    shutdown    n    c(n-1)    ...    c0
mpc.gencost = [
	2	51.747	51.747	2	135.72203	0.0
	2	51.747	51.747	2	135.72203	0.0
	2	11172.01435	11172.01435	2	28.05265	0.0
	2	11172.01435	11172.01435	2	28.05265	0.0
	2	51.747	51.747	2	151.50487	0.0
	2	51.747	51.747	2	151.50487	0.0
	2	11172.01435	11172.01435	2	24.50326	0.0
	2	11172.01435	11172.01435	2	24.50326	0.0
	2	28046.68102	28046.68102	2	28.0735	0.0
	2	5665.23443	5665.23443	2	51.01976	0.0
	2	5665.23443	5665.23443	2	51.01976	0.0
	2	5665.23443	5665.23443	2	51.01976	0.0
	2	5665.23443	5665.23443	2	51.01976	0.0
	2	703.7592	703.7592	2	179.45860000000002	0.0
	2	703.7592	703.7592	2	179.45860000000002	0.0
	2	22784.79562	22784.79562	2	24.19673	0.0
	2	22784.79562	22784.79562	2	27.985	0.0
	2	28046.68102	28046.68102	2	28.209560000000003	0.0
	2	22784.79562	22784.79562	2	23.18413	0.0
	2	36749.81356	36749.81356	2	25.59196	0.0
	2	5665.23443	5665.23443	2	49.464870000000005	0.0
	2	5665.23443	5665.23443	2	49.464870000000005	0.0
	2	5665.23443	5665.23443	2	49.464870000000005	0.0
	2	51.747	51.747	2	144.65356	0.0
	2	51.747	51.747	2	144.65356	0.0
	2	11172.01435	11172.01435	2	27.45862	0.0
	2	51.747	51.747	2	141.40385	0.0
	2	51.747	51.747	2	141.40385	0.0
	2	11172.01435	11172.01435	2	25.042330000000003	0.0
	2	11172.01435	11172.01435	2	25.042330000000003	0.0
	2	5665.23443	5665.23443	2	50.732110000000006	0.0
	2	5665.23443	5665.23443	2	50.732110000000006	0.0
	2	28046.68102	28046.68102	2	30.41361	0.0
	2	5665.23443	5665.23443	2	51.01976	0.0
	2	5665.23443	5665.23443	2	51.01976	0.0
	2	5665.23443	5665.23443	2	55.31125	0.0
	2	5665.23443	5665.23443	2	55.31125	0.0
	2	22784.79562	22784.79562	2	23.00233	0.0
	2	28046.68102	28046.68102	2	44.25600000000001	0.0
	2	28046.68102	28046.68102	2	26.77128	0.0
	2	22784.79562	22784.79562	2	22.951590000000003	0.0
	2	22784.79562	22784.79562	2	22.951590000000003	0.0
	2	36749.81356	36749.81356	2	23.73799	0.0
	2	5665.23443	5665.23443	2	76.94363	0.0
	2	5665.23443	5665.23443	2	76.94363	0.0
	2	5665.23443	5665.23443	2	76.94363	0.0
	2	51.747	51.747	2	151.02879	0.0
	2	51.747	51.747	2	151.02879	0.0
	2	5665.23443	5665.23443	2	50.88371	0.0
	2	5665.23443	5665.23443	2	50.88371	0.0
	2	51.747	51.747	2	151.02879	0.0
	2	51.747	51.747	2	151.02879	0.0
	2	5665.23443	5665.23443	2	59.84375	0.0
	2	5665.23443	5665.23443	2	59.84375	0.0
	2	5665.23443	5665.23443	2	51.90605000000001	0.0
	2	5665.23443	5665.23443	2	51.90605000000001	0.0
	2	28046.68102	28046.68102	2	30.8412	0.0
	2	703.7592	703.7592	2	149.13485	0.0
	2	703.7592	703.7592	2	149.13485	0.0
	2	703.7592	703.7592	2	149.13485	0.0
	2	703.7592	703.7592	2	149.13485	0.0
	2	703.7592	703.7592	2	149.13485	0.0
	2	5665.23443	5665.23443	2	40.20163	0.0
	2	5665.23443	5665.23443	2	40.20163	0.0
	2	5665.23443	5665.23443	2	40.20163	0.0
	2	22784.79562	22784.79562	2	25.042330000000003	0.0
	2	28046.68102	28046.68102	2	30.91117	0.0
	2	28046.68102	28046.68102	2	28.09294	0.0
	2	5665.23443	5665.23443	2	46.89542	0.0
	2	5665.23443	5665.23443	2	46.89542	0.0
	2	28046.68102	28046.68102	2	28.69157	0.0
	2	28046.68102	28046.68102	2	28.69157	0.0
	2	63999.8223	63999.8223	2	8.1035	0.0
	2	0.0	0.0	2	0	0
	2	0.0	0.0	2	0	0
	2	0.0	0.0	2	0	0
	2	0.0	0.0	2	0	0
	2	0.0	0.0	2	0	0
	2	0.0	0.0	2	0	0
	2	0.0	0.0	2	0	0
	2	0.0	0.0	2	0	0
	2	0.0	0.0	2	0	0
	2	0.0	0.0	2	0	0
	2	0.0	0.0	2	0	0
	2	0.0	0.0	2	0	0
	2	0.0	0.0	2	0	0
	2	0.0	0.0	2	0	0
	2	0.0	0.0	2	0	0
	2	0.0	0.0	2	0	0
	2	0.0	0.0	2	0	0
	2	0.0	0.0	2	0	0
	2	0.0	0.0	2	0	0
	2	0.0	0.0	2	0	0
	2	0.0	0.0	2	0	0
	2	0.0	0.0	2	0	0
	2	0.0	0.0	2	0	0
	2	0.0	0.0	2	0	0
	2	0.0	0.0	2	0	0
	2	0.0	0.0	2	0	0
	2	0.0	0.0	2	0	0
	2	0.0	0.0	2	0	0
	2	0.0	0.0	2	0	0
	2	0.0	0.0	2	0	0
	2	0.0	0.0	2	0	0
	2	0.0	0.0	2	0	0
	2	0.0	0.0	2	0	0
	2	0.0	0.0	2	0	0
	2	0.0	0.0	2	0	0
	2	0.0	0.0	2	0	0
	2	0.0	0.0	2	0	0
	2	0.0	0.0	2	0	0
	2	0.0	0.0	2	0	0
	2	0.0	0.0	2	0	0
	2	10000.0	0.0	2	0	0
	2	0.0	0.0	2	0	0
	2	0.0	0.0	2	0	0
	2	0.0	0.0	2	0	0
	2	0.0	0.0	2	0	0
	2	0.0	0.0	2	0	0
	2	0.0	0.0	2	0	0
	2	0.0	0.0	2	0	0
	2	0.0	0.0	2	0	0
	2	0.0	0.0	2	0	0
	2	0.0	0.0	2	0	0
	2	0.0	0.0	2	0	0
	2	0.0	0.0	2	0	0
	2	0.0	0.0	2	0	0
	2	0.0	0.0	2	0	0
	2	0.0	0.0	2	0	0
	2	0.0	0.0	2	0	0
	2	0.0	0.0	2	0	0
	2	0.0	0.0	2	0	0
	2	0.0	0.0	2	0	0
	2	0.0	0.0	2	0	0
	2	0.0	0.0	2	0	0
	2	0.0	0.0	2	0	0
	2	0.0	0.0	2	0	0
	2	0.0	0.0	2	0	0
	2	0.0	0.0	2	0	0
	2	0.0	0.0	2	0	0
	2	0.0	0.0	2	0	0
	2	0.0	0.0	2	0	0
	2	0.0	0.0	2	0	0
	2	0.0	0.0	2	0	0
	2	0.0	0.0	2	0	0
	2	0.0	0.0	2	0	0
	2	0.0	0.0	2	0	0
	2	0.0	0.0	2	0	0
	2	0.0	0.0	2	0	0
	2	0.0	0.0	2	0	0
	2	0.0	0.0	2	0	0
	2	0.0	0.0	2	0	0
	2	0.0	0.0	2	0	0
	2	0.0	0.0	2	0	0
	2	0.0	0.0	2	0	0
];

%%-----  OPF Data  -----%%
%% cost data
%    1    startup    shutdown    n    x1    y1    ...    xn    yn
%    2    startup    shutdown    n    c(n-1)    ...    c0
mpc.dclinecost = [
	2	0.0	0.0	2	0.0	0.0
];

%% bus names
mpc.bus_name = {
	'ABEL'
	'ADAMS'
	'ADLER'
	'AGRICOLA'
	'AIKEN'
	'ALBER'
	'ALDER'
	'ALGER'
	'ALI'
	'ALLEN'
	'ANNA'
	'ARCHER'
	'ARNE'
	'ARNOLD'
	'ARTHUR'
	'ASSER'
	'ASTON'
	'ASTOR'
	'ATTAR'
	'ATTILA'
	'ATTLEE'
	'AUBREY'
	'AUSTEN'
	'AVERY'
	'ANNA'
	'AUSTEN'
	'ASTOR'
	'ALDER'
	'BACH'
	'BACON'
	'BAFFIN'
	'BAILEY'
	'BAIN'
	'BAJER'
	'BAKER'
	'BALCH'
	'BALZAC'
	'BANKS'
	'BARDEEN'
	'BARKLA'
	'BARLOW'
	'BARRY'
	'BARTON'
	'BASOV'
	'BATES'
	'BAYLE'
	'BEDE'
	'BEETHOVEN'
	'BEHRING'
	'BELL'
	'BLOCH'
	'BORDET'
	'BARDEEN'
	'BAFFIN'
	'BARRY'
	'BACH'
	'BATES'
	'CABELL'
	'CABOT'
	'CAESAR'
	'CAINE'
	'CALVIN'
	'CAMUS'
	'CAREW'
	'CARREL'
	'CARTER'
	'CARUSO'
	'CARY'
	'CAXTON'
	'CECIL'
	'CHAIN'
	'CHASE'
	'CHIFA'
	'CHUHSI'
	'CLARK'
	'CLAY'
	'CLIVE'
	'COBB'
	'COLE'
	'COMTE'
	'CURIE'
	'CURTISS'
	'CAESAR'
	'CARY'
	'CAINE'
	'COMTE'
	'CHUHSI'
	'CECIL'
	'CARREL'
	'COBB'
	'CAXTON'
};

%column_names% Va0 PgSum 
mpc.bus_data = {
	-0.06961604527395401	0.0
	-0.07255981771195501	0.0
	0.04709021767569317	0.0
	-0.05938315013614663	0.0
	-0.07195484966699672	0
	-0.07847606406827165	0
	-0.19441126023056024	0.0
	-0.14676180988131277	0
	-0.02612295052744834	0
	-0.056134039151490595	0
	0.02233056388922848	0
	0.007328689311755094	0
	0.0	0.0
	0.10404344460870665	0
	0.27959347223812747	0.0
	0.25224924441226715	0.0
	0.3511710396009373	0
	0.3612131774070369	0.0
	0.19223677715912701	0.0
	0.15062126480322466	0
	0.38317731458753906	4.0
	0.6753468712402042	7.384
	0.13184364251642483	3.754743045950809
	0.19151122513593738	0
	0.02233056388922848	0
	0.13184364251642483	0
	0.3612131774070369	0
	-0.19441126023056024	0
	-0.3670511650613764	0.09299999999999997
	-0.3701646339832904	0.0
	-0.2614160026258874	0
	-0.35317972029476596	0
	-0.36494375456976325	0
	-0.3702461996704768	0
	-0.4429607076047735	0.0
	-0.41499933785589865	0
	-0.31104908324135977	0
	-0.339850143482234	0
	-0.2602101287826761	0
	-0.2528939947543908	0.0
	-0.24291415822785406	0.0
	-0.2114334645772305	0
	-0.10197225466746365	0.279
	-0.10094064018522127	1.55
	-0.06519587178691028	0
	-0.08455961942426274	0.0
	-0.11530757536735753	0
	-0.1145257875982026	0
	-0.08666551834278494	0.0
	-0.05519698674856829	0.558
	-0.10893257696694891	1.2931229484946885
	-0.16237641388236995	0
	-0.2602101287826761	0
	-0.2614160026258874	0
	-0.2114334645772305	0
	-0.3670511650613764	0
	-0.06519587178691028	0
	0.006554267929251512	0.0
	0.0014763206823160818	0.0
	0.22652733226123034	3.7868400245184715
	0.028255515567742612	0
	-0.013391646137778802	0
	-0.03188414965688331	0
	-0.09527503601723805	0.0
	-0.06384605395236105	0.0
	0.08190656726000799	1.4280000000000002
	-0.008288316600980283	0.0
	0.05380430814388207	0
	0.06478006984385262	0.0
	0.0636524765988644	0.5
	0.062132787262744495	0.0
	0.11849231437869283	0.0
	0.12101082613740706	0.0
	0.17065196972665214	5.2327431263897015
	0.12397617686394047	0.0
	0.11293757844362583	0.0
	0.120838401100333	0.0
	0.12759138157999272	0.0
	0.17175623703648313	0.66
	0.13098739543002647	0.0
	0.15942063238752247	0.0
	0.15239974705660772	0
	0.22652733226123034	0
	0.05380430814388207	0
	0.028255515567742612	0
	0.13098739543002647	0
	0.17065196972665214	0
	0.0636524765988644	0
	-0.06384605395236105	0
	0.12759138157999272	0
	0.06478006984385262	0
};

%column_names% Pg0 name fuel type 
mpc.gen_data = {
	0.0	'101_CT_1'	'Oil'	'CT'
	0.0	'101_CT_2'	'Oil'	'CT'
	0.0	'101_STEAM_3'	'Coal'	'STEAM'
	0.0	'101_STEAM_4'	'Coal'	'STEAM'
	0.0	'102_CT_1'	'Oil'	'CT'
	0.0	'102_CT_2'	'Oil'	'CT'
	0.0	'102_STEAM_3'	'Coal'	'STEAM'
	0.0	'102_STEAM_4'	'Coal'	'STEAM'
	0.0	'107_CC_1'	'NG'	'CC'
	0.0	'113_CT_1'	'NG'	'CT'
	0.0	'113_CT_2'	'NG'	'CT'
	0.0	'113_CT_3'	'NG'	'CT'
	0.0	'113_CT_4'	'NG'	'CT'
	0.0	'115_STEAM_1'	'Oil'	'STEAM'
	0.0	'115_STEAM_2'	'Oil'	'STEAM'
	0.0	'115_STEAM_3'	'Coal'	'STEAM'
	0.0	'116_STEAM_1'	'Coal'	'STEAM'
	0.0	'118_CC_1'	'NG'	'CC'
	1.55	'123_STEAM_2'	'Coal'	'STEAM'
	2.2047430459508086	'123_STEAM_3'	'Coal'	'STEAM'
	0.0	'123_CT_1'	'NG'	'CT'
	0.0	'123_CT_4'	'NG'	'CT'
	0.0	'123_CT_5'	'NG'	'CT'
	0.0	'201_CT_1'	'Oil'	'CT'
	0.0	'201_CT_2'	'Oil'	'CT'
	0.0	'201_STEAM_3'	'Coal'	'STEAM'
	0.0	'202_CT_1'	'Oil'	'CT'
	0.0	'202_CT_2'	'Oil'	'CT'
	0.0	'202_STEAM_3'	'Coal'	'STEAM'
	0.0	'202_STEAM_4'	'Coal'	'STEAM'
	0.0	'207_CT_1'	'NG'	'CT'
	0.0	'207_CT_2'	'NG'	'CT'
	0.0	'213_CC_3'	'NG'	'CC'
	0.0	'213_CT_1'	'NG'	'CT'
	0.0	'213_CT_2'	'NG'	'CT'
	0.0	'215_CT_4'	'NG'	'CT'
	0.0	'215_CT_5'	'NG'	'CT'
	1.55	'216_STEAM_1'	'Coal'	'STEAM'
	0.0	'218_CC_1'	'NG'	'CC'
	0.0	'221_CC_1'	'NG'	'CC'
	0.0	'223_STEAM_1'	'Coal'	'STEAM'
	1.2931229484946885	'223_STEAM_2'	'Coal'	'STEAM'
	0.0	'223_STEAM_3'	'Coal'	'STEAM'
	0.0	'223_CT_4'	'NG'	'CT'
	0.0	'223_CT_5'	'NG'	'CT'
	0.0	'223_CT_6'	'NG'	'CT'
	0.0	'301_CT_1'	'Oil'	'CT'
	0.0	'301_CT_2'	'Oil'	'CT'
	0.0	'301_CT_3'	'NG'	'CT'
	0.0	'301_CT_4'	'NG'	'CT'
	0.0	'302_CT_1'	'Oil'	'CT'
	0.0	'302_CT_2'	'Oil'	'CT'
	0.0	'302_CT_3'	'NG'	'CT'
	0.0	'302_CT_4'	'NG'	'CT'
	0.0	'307_CT_1'	'NG'	'CT'
	0.0	'307_CT_2'	'NG'	'CT'
	0.0	'313_CC_1'	'NG'	'CC'
	0.0	'315_STEAM_1'	'Oil'	'STEAM'
	0.0	'315_STEAM_2'	'Oil'	'STEAM'
	0.0	'315_STEAM_3'	'Oil'	'STEAM'
	0.0	'315_STEAM_4'	'Oil'	'STEAM'
	0.0	'315_STEAM_5'	'Oil'	'STEAM'
	0.0	'315_CT_6'	'NG'	'CT'
	0.0	'315_CT_7'	'NG'	'CT'
	0.0	'315_CT_8'	'NG'	'CT'
	0.0	'316_STEAM_1'	'Coal'	'STEAM'
	0.0	'318_CC_1'	'NG'	'CC'
	0.0	'321_CC_1'	'NG'	'CC'
	0.0	'322_CT_5'	'NG'	'CT'
	0.0	'322_CT_6'	'NG'	'CT'
	0.0	'323_CC_1'	'NG'	'CC'
	0.0	'323_CC_2'	'NG'	'CC'
	4.0	'121_NUCLEAR_1'	'Nuclear'	'NUCLEAR'
	0.042	'122_HYDRO_1'	'Hydro'	'HYDRO'
	0.042	'122_HYDRO_2'	'Hydro'	'HYDRO'
	0.042	'122_HYDRO_3'	'Hydro'	'HYDRO'
	0.042	'122_HYDRO_4'	'Hydro'	'HYDRO'
	0.042	'122_HYDRO_5'	'Hydro'	'HYDRO'
	0.042	'122_HYDRO_6'	'Hydro'	'HYDRO'
	0.09299999999999997	'201_HYDRO_4'	'Hydro'	'ROR'
	0.09300000000000001	'215_HYDRO_1'	'Hydro'	'HYDRO'
	0.09300000000000001	'215_HYDRO_2'	'Hydro'	'HYDRO'
	0.09300000000000001	'215_HYDRO_3'	'Hydro'	'HYDRO'
	0.09300000000000001	'222_HYDRO_1'	'Hydro'	'HYDRO'
	0.09300000000000001	'222_HYDRO_2'	'Hydro'	'HYDRO'
	0.09300000000000001	'222_HYDRO_3'	'Hydro'	'HYDRO'
	0.09300000000000001	'222_HYDRO_4'	'Hydro'	'HYDRO'
	0.09300000000000001	'222_HYDRO_5'	'Hydro'	'HYDRO'
	0.09300000000000001	'222_HYDRO_6'	'Hydro'	'HYDRO'
	0.165	'322_HYDRO_1'	'Hydro'	'HYDRO'
	0.165	'322_HYDRO_2'	'Hydro'	'HYDRO'
	0.165	'322_HYDRO_3'	'Hydro'	'HYDRO'
	0.165	'322_HYDRO_4'	'Hydro'	'HYDRO'
	0.0	'320_PV_1'	'Solar'	'PV'
	0.0	'314_PV_1'	'Solar'	'PV'
	0.0	'314_PV_2'	'Solar'	'PV'
	0.0	'313_PV_1'	'Solar'	'PV'
	0.0	'314_PV_3'	'Solar'	'PV'
	0.0	'314_PV_4'	'Solar'	'PV'
	0.0	'313_PV_2'	'Solar'	'PV'
	0.0	'310_PV_1'	'Solar'	'PV'
	0.0	'324_PV_1'	'Solar'	'PV'
	0.0	'312_PV_1'	'Solar'	'PV'
	0.0	'310_PV_2'	'Solar'	'PV'
	0.0	'324_PV_2'	'Solar'	'PV'
	0.0	'324_PV_3'	'Solar'	'PV'
	0.0	'113_PV_1'	'Solar'	'PV'
	0.0	'319_PV_1'	'Solar'	'PV'
	0.0	'215_PV_1'	'Solar'	'PV'
	0.0	'102_PV_1'	'Solar'	'PV'
	0.0	'101_PV_1'	'Solar'	'PV'
	0.0	'102_PV_2'	'Solar'	'PV'
	0.0	'104_PV_1'	'Solar'	'PV'
	0.0	'212_CSP_1'	'Solar'	'CSP'
	0.0	'101_PV_2'	'Solar'	'PV'
	0.0	'101_PV_3'	'Solar'	'PV'
	0.0	'101_PV_4'	'Solar'	'PV'
	0.0	'103_PV_1'	'Solar'	'PV'
	0.0	'119_PV_1'	'Solar'	'PV'
	0.0	'308_RTPV_1'	'Solar'	'RTPV'
	0.0	'313_RTPV_1'	'Solar'	'RTPV'
	0.0	'313_RTPV_2'	'Solar'	'RTPV'
	0.0	'313_RTPV_3'	'Solar'	'RTPV'
	0.0	'313_RTPV_4'	'Solar'	'RTPV'
	0.0	'313_RTPV_5'	'Solar'	'RTPV'
	0.0	'313_RTPV_6'	'Solar'	'RTPV'
	0.0	'313_RTPV_7'	'Solar'	'RTPV'
	0.0	'313_RTPV_8'	'Solar'	'RTPV'
	0.0	'313_RTPV_9'	'Solar'	'RTPV'
	0.0	'313_RTPV_10'	'Solar'	'RTPV'
	0.0	'313_RTPV_11'	'Solar'	'RTPV'
	0.0	'313_RTPV_12'	'Solar'	'RTPV'
	0.0	'320_RTPV_1'	'Solar'	'RTPV'
	0.0	'320_RTPV_2'	'Solar'	'RTPV'
	0.0	'320_RTPV_3'	'Solar'	'RTPV'
	0.0	'313_RTPV_13'	'Solar'	'RTPV'
	0.0	'320_RTPV_4'	'Solar'	'RTPV'
	0.0	'320_RTPV_5'	'Solar'	'RTPV'
	0.0	'118_RTPV_1'	'Solar'	'RTPV'
	0.0	'118_RTPV_2'	'Solar'	'RTPV'
	0.0	'118_RTPV_3'	'Solar'	'RTPV'
	0.0	'118_RTPV_4'	'Solar'	'RTPV'
	0.0	'118_RTPV_5'	'Solar'	'RTPV'
	0.0	'118_RTPV_6'	'Solar'	'RTPV'
	0.0	'320_RTPV_6'	'Solar'	'RTPV'
	0.0	'118_RTPV_7'	'Solar'	'RTPV'
	0.0	'118_RTPV_8'	'Solar'	'RTPV'
	0.0	'118_RTPV_9'	'Solar'	'RTPV'
	0.0	'118_RTPV_10'	'Solar'	'RTPV'
	0.0	'213_RTPV_1'	'Solar'	'RTPV'
	1.4280000000000002	'309_WIND_1'	'Wind'	'WIND'
	5.2327431263897015	'317_WIND_1'	'Wind'	'WIND'
	3.7868400245184715	'303_WIND_1'	'Wind'	'WIND'
	7.132000000000001	'122_WIND_1'	'Wind'	'WIND'
	0.5	'313_STORAGE_1'	'Storage'	'STORAGE'
};

%column_names% breaker closed brk p_f(pu) switchable pst 
mpc.branch_data = {
	'no'	1	'NA'	0.2102694598571893	0.0	'no'
	'no'	1	'NA'	-0.5531102509461969	0.0	'no'
	'no'	1	'NA'	0.027515345800498747	0.0	'no'
	'no'	1	'NA'	-0.10375328799849115	0.0	'no'
	'no'	1	'NA'	0.03081378310581584	0.0	'no'
	'no'	1	'NA'	0.6152367075894245	0.0	'no'
	'no'	1	'NA'	-1.6938893673498028	0.0	'no'
	'no'	1	'NA'	-0.319809611622099	0.0	'no'
	'no'	1	'NA'	-0.1797819376762061	0.0	'no'
	'no'	1	'NA'	-0.3662627035537878	0.0	'no'
	'no'	1	'NA'	-0.7811385303155376	0.0	'no'
	'no'	1	'NA'	0.41617852419457846	0.0	'no'
	'no'	1	'NA'	-0.731144602144633	0.0	'no'
	'no'	1	'NA'	-0.5492592165443769	0.0	'no'
	'no'	1	'NA'	-0.560026750077171	0.0	'no'
	'no'	1	'NA'	-0.3866347646694802	0.0	'no'
	'no'	1	'NA'	-0.9202979479324307	0.0	'no'
	'no'	1	'NA'	-0.7443435193906364	0.0	'no'
	'no'	1	'NA'	0.4652200810255933	0.0	'no'
	'no'	1	'NA'	-1.945544779035195	0.0	'no'
	'no'	1	'NA'	0.15268102732823113	0.0	'no'
	'no'	1	'NA'	-1.2836593113883477	0.0	'no'
	'no'	1	'NA'	-1.515444166855458	0.0	'no'
	'no'	1	'NA'	1.3596300622328488	0.0	'no'
	'no'	1	'NA'	-2.5119627085349236	0.0	'no'
	'no'	1	'NA'	1.6084839897564895	0.0	'no'
	'no'	1.0	'NA'	-2.1139559663145224	1.0	'no'
	'no'	1	'NA'	-2.1139559663145224	0.0	'no'
	'no'	1	'NA'	1.6938893673498028	0.0	'no'
	'no'	1	'NA'	-3.8046844303334693	0.0	'no'
	'no'	1	'NA'	2.609237706658267	0.0	'no'
	'no'	1	'NA'	-0.717295557578546	0.0	'no'
	'no'	1	'NA'	-3.0873888727549232	0.0	'no'
	'no'	1.0	'NA'	-0.8447745069423906	1.0	'no'
	'no'	1	'NA'	-0.8447745069423906	0.0	'no'
	'no'	1.0	'NA'	1.0403878088975589	1.0	'no'
	'no'	1	'NA'	1.0403878088975589	0.0	'no'
	'no'	1.0	'NA'	0.8535282857636278	1.0	'no'
	'no'	1	'NA'	0.8535282857636278	0.0	'no'
	'no'	1	'NA'	-4.296611127245077	0.0	'no'
	'no'	1	'NA'	2.6626961392342583	0.0	'no'
	'no'	1	'NA'	0.2223906372795722	0.0	'no'
	'no'	1	'NA'	-0.5006405802629811	0.0	'no'
	'no'	1	'NA'	-0.024793064607213144	0.0	'no'
	'no'	1	'NA'	-0.13373947786239704	0.0	'no'
	'no'	1	'NA'	0.00042482128742887815	0.0	'no'
	'no'	1	'NA'	0.41708471105438993	0.0	'no'
	'no'	1	'NA'	-1.1616184464405046	0.0	'no'
	'no'	1	'NA'	-0.405102279359675	0.0	'no'
	'no'	1	'NA'	-0.28515467144919604	0.0	'no'
	'no'	1	'NA'	-0.49829600308594685	0.0	'no'
	'no'	1	'NA'	-0.45838311063729387	0.0	'no'
	'no'	1	'NA'	-0.6300015431184172	0.0	'no'
	'no'	1	'NA'	-0.4554496628706947	0.0	'no'
	'no'	1	'NA'	-0.5875977168132663	0.0	'no'
	'no'	1	'NA'	-0.672157749502648	0.0	'no'
	'no'	1	'NA'	-0.9340841508275629	0.0	'no'
	'no'	1	'NA'	-1.0198938391724526	0.0	'no'
	'no'	1	'NA'	-0.3603327198921254	0.0	'no'
	'no'	1	'NA'	-1.161349147748704	0.0	'no'
	'no'	1	'NA'	-0.20791326096951446	0.0	'no'
	'no'	1	'NA'	-1.4841383277055862	0.0	'no'
	'no'	1	'NA'	-1.540018175412703	0.0	'no'
	'no'	1	'NA'	-1.8727597354577838	0.0	'no'
	'no'	1	'NA'	-0.060683204837763016	0.0	'no'
	'no'	1.0	'NA'	-0.31238237397303503	1.0	'no'
	'no'	1	'NA'	-0.3123823739730351	0.0	'no'
	'no'	1	'NA'	1.1616184464405046	0.0	'no'
	'no'	1	'NA'	-1.3747987845504368	0.0	'no'
	'no'	1	'NA'	0.6246493557450549	0.0	'no'
	'no'	1	'NA'	1.3831248312394588	0.0	'no'
	'no'	1	'NA'	-0.09522747655563799	0.0	'no'
	'no'	1.0	'NA'	0.08099611225085401	1.0	'no'
	'no'	1	'NA'	0.08099611225085401	0.0	'no'
	'no'	1.0	'NA'	-0.019544694228873283	1.0	'no'
	'no'	1	'NA'	-0.019544694228873283	0.0	'no'
	'no'	1.0	'NA'	-0.25423684687516773	1.0	'no'
	'no'	1	'NA'	-0.25423684687516773	0.0	'no'
	'no'	1	'NA'	-0.46277252344436204	0.0	'no'
	'no'	1	'NA'	0.36271051763824685	0.0	'no'
	'no'	1	'NA'	-1.0425263712416057	0.0	'no'
	'no'	1	'NA'	0.2346578125532977	0.0	'no'
	'no'	1	'NA'	-0.210859802247453	0.0	'no'
	'no'	1	'NA'	0.17375244968333015	0.0	'no'
	'no'	1	'NA'	1.2153005462287592	0.0	'no'
	'no'	1	'NA'	0.7870830386313381	0.0	'no'
	'no'	1	'NA'	-0.5158754970410133	0.0	'no'
	'no'	1	'NA'	-0.05799238109998317	0.0	'no'
	'no'	1	'NA'	-0.3868169353426727	0.0	'no'
	'no'	1	'NA'	-0.5152292141783114	0.0	'no'
	'no'	1	'NA'	-0.8833492194689032	0.0	'no'
	'no'	1	'NA'	-0.3367135597053381	0.0	'no'
	'no'	1	'NA'	0.3248065085081797	0.0	'no'
	'no'	1	'NA'	0.1979484213610263	0.0	'no'
	'no'	1	'NA'	-0.7282738065313218	0.0	'no'
	'no'	1	'NA'	-0.8570066437348374	0.0	'no'
	'no'	1	'NA'	-0.20517017614546496	0.0	'no'
	'no'	1	'NA'	-0.19829712187767712	0.0	'no'
	'no'	1	'NA'	0.023491525937254565	0.0	'no'
	'no'	1	'NA'	-0.6825497483110704	0.0	'no'
	'no'	1	'NA'	-0.7739645842662306	0.0	'no'
	'no'	1	'NA'	-0.9979328622824164	0.0	'no'
	'no'	1	'NA'	-0.14814775051260165	0.0	'no'
	'no'	1.0	'NA'	-0.18569524900612028	1.0	'no'
	'no'	1	'NA'	-0.18569524900612028	0.0	'no'
	'no'	1	'NA'	-0.7870830386313381	0.0	'no'
	'no'	1	'NA'	-1.9092747534325034	0.0	'no'
	'no'	1	'NA'	0.3510107692948362	0.0	'no'
	'no'	1	'NA'	3.333985204479398	0.0	'no'
	'no'	1	'NA'	-0.010516831522199954	0.0	'no'
	'no'	1.0	'NA'	-0.13904633523277976	1.0	'no'
	'no'	1	'NA'	-0.13904633523277976	0.0	'no'
	'no'	1.0	'NA'	-0.1975205664176793	1.0	'no'
	'no'	1	'NA'	-0.1975205664176793	0.0	'no'
	'no'	1.0	'NA'	-0.46131792407697475	1.0	'no'
	'no'	1	'NA'	-0.46131792407697475	0.0	'no'
	'no'	1	'NA'	-0.6494831684778001	0.0	'no'
	'no'	1	'NA'	-2.3791501807312505	0.0	'no'
	'no'	1	'NA'	2.239507248373936	0.0	'no'
	'no'	1	'NA'	-2.3791501807312505	0.0	'no'
	'yes'	1	1.0	'NA'	0.0	'no'
	'yes'	1	1.0	'NA'	0.0	'no'
	'yes'	1	1.0	'NA'	0.0	'no'
	'yes'	1	1.0	'NA'	0.0	'no'
	'yes'	1	1.0	'NA'	0.0	'no'
	'yes'	1	1.0	'NA'	0.0	'no'
	'yes'	1	1.0	'NA'	0.0	'no'
	'yes'	1	1.0	'NA'	0.0	'no'
	'yes'	1	1.0	'NA'	0.0	'no'
	'yes'	1	1.0	'NA'	0.0	'no'
	'yes'	1	1.0	'NA'	0.0	'no'
	'yes'	1	1.0	'NA'	0.0	'no'
	'yes'	1	1.0	'NA'	0.0	'no'
	'yes'	1	1.0	'NA'	0.0	'no'
	'yes'	1	1.0	'NA'	0.0	'no'
	'yes'	1	1.0	'NA'	0.0	'no'
	'yes'	1	1.0	'NA'	0.0	'no'
	'yes'	1	1.0	'NA'	0.0	'no'
};

mpc.objective = 19023.69679863057;

mpc.brk_mode = 'closed';

mpc.system = 'multigrid';

mpc.timestep = '2020-01-01 00:00';

%column_names% zone bus_i bus_type name qd gs bs vmax area vmin va vm base_kv pd 
mpc.ref_buses = {
	14	113	3	'ARNE'	0.54	0.0	0.0	1.05	1	0.95	0.0	1.03943	230.0	0.7737152129764335
};

%column_names% col_1 col_2 
mpc.areas = {
	1	101
	2	201
	3	301
};

mpc.gap = 0.0;

mpc.sec_mode = 'preventive';

